data_203
_audit_creation_date              2023-09-08
_audit_creation_method            'Materials Studio'
_symmetry_space_group_name_H-M    'P1'
_symmetry_Int_Tables_number       1
_symmetry_cell_setting            triclinic
loop_
_symmetry_equiv_pos_as_xyz
  x,y,z
_cell_length_a                    31.9530
_cell_length_b                    31.9530
_cell_length_c                    31.9530
_cell_angle_alpha                 90.0000
_cell_angle_beta                  90.0000
_cell_angle_gamma                 90.0000
loop_
_atom_site_label
_atom_site_type_symbol
_atom_site_fract_x
_atom_site_fract_y
_atom_site_fract_z
_atom_site_U_iso_or_equiv
_atom_site_adp_type
_atom_site_occupancy
C1     C     0.42945   0.42945   0.09394   0.00000  Uiso   1.00
C2     C     0.57055   0.57055   0.09394   0.00000  Uiso   1.00
C3     C     0.57055   0.42945   0.90606   0.00000  Uiso   1.00
C4     C     0.42945   0.57055   0.90606   0.00000  Uiso   1.00
C5     C     0.09394   0.42945   0.42945   0.00000  Uiso   1.00
C6     C     0.09394   0.57055   0.57055   0.00000  Uiso   1.00
C7     C     0.90606   0.57055   0.42945   0.00000  Uiso   1.00
C8     C     0.90606   0.42945   0.57055   0.00000  Uiso   1.00
C9     C     0.42945   0.09394   0.42945   0.00000  Uiso   1.00
C10    C     0.57055   0.09394   0.57055   0.00000  Uiso   1.00
C11    C     0.42945   0.90606   0.57055   0.00000  Uiso   1.00
C12    C     0.57055   0.90606   0.42945   0.00000  Uiso   1.00
C13    C     0.46750   0.41409   0.07785   0.00000  Uiso   1.00
C14    C     0.53250   0.58591   0.07785   0.00000  Uiso   1.00
C15    C     0.53250   0.41409   0.92215   0.00000  Uiso   1.00
C16    C     0.46750   0.58591   0.92215   0.00000  Uiso   1.00
C17    C     0.07785   0.46750   0.41409   0.00000  Uiso   1.00
C18    C     0.07785   0.53250   0.58591   0.00000  Uiso   1.00
C19    C     0.92215   0.53250   0.41409   0.00000  Uiso   1.00
C20    C     0.92215   0.46750   0.58591   0.00000  Uiso   1.00
C21    C     0.41409   0.07785   0.46750   0.00000  Uiso   1.00
C22    C     0.58591   0.07785   0.53250   0.00000  Uiso   1.00
C23    C     0.41409   0.92215   0.53250   0.00000  Uiso   1.00
C24    C     0.58591   0.92215   0.46750   0.00000  Uiso   1.00
C25    C     0.41409   0.46750   0.07785   0.00000  Uiso   1.00
C26    C     0.58591   0.53250   0.07785   0.00000  Uiso   1.00
C27    C     0.41409   0.53250   0.92215   0.00000  Uiso   1.00
C28    C     0.58591   0.46750   0.92215   0.00000  Uiso   1.00
C29    C     0.46750   0.07785   0.41409   0.00000  Uiso   1.00
C30    C     0.53250   0.07785   0.58591   0.00000  Uiso   1.00
C31    C     0.53250   0.92215   0.41409   0.00000  Uiso   1.00
C32    C     0.46750   0.92215   0.58591   0.00000  Uiso   1.00
C33    C     0.07785   0.41409   0.46750   0.00000  Uiso   1.00
C34    C     0.07785   0.58591   0.53250   0.00000  Uiso   1.00
C35    C     0.92215   0.41409   0.53250   0.00000  Uiso   1.00
C36    C     0.92215   0.58591   0.46750   0.00000  Uiso   1.00
C37    C     0.48910   0.43571   0.04679   0.00000  Uiso   1.00
C38    C     0.51090   0.56429   0.04679   0.00000  Uiso   1.00
C39    C     0.51090   0.43571   0.95321   0.00000  Uiso   1.00
C40    C     0.48910   0.56429   0.95321   0.00000  Uiso   1.00
C41    C     0.04679   0.48910   0.43571   0.00000  Uiso   1.00
C42    C     0.04679   0.51090   0.56429   0.00000  Uiso   1.00
C43    C     0.95321   0.51090   0.43571   0.00000  Uiso   1.00
C44    C     0.95321   0.48910   0.56429   0.00000  Uiso   1.00
C45    C     0.43571   0.04679   0.48910   0.00000  Uiso   1.00
C46    C     0.56429   0.04679   0.51090   0.00000  Uiso   1.00
C47    C     0.43571   0.95321   0.51090   0.00000  Uiso   1.00
C48    C     0.56429   0.95321   0.48910   0.00000  Uiso   1.00
C49    C     0.43571   0.48910   0.04679   0.00000  Uiso   1.00
C50    C     0.56429   0.51090   0.04679   0.00000  Uiso   1.00
C51    C     0.43571   0.51090   0.95321   0.00000  Uiso   1.00
C52    C     0.56429   0.48910   0.95321   0.00000  Uiso   1.00
C53    C     0.48910   0.04679   0.43571   0.00000  Uiso   1.00
C54    C     0.51090   0.04679   0.56429   0.00000  Uiso   1.00
C55    C     0.51090   0.95321   0.43571   0.00000  Uiso   1.00
C56    C     0.48910   0.95321   0.56429   0.00000  Uiso   1.00
C57    C     0.04679   0.43571   0.48910   0.00000  Uiso   1.00
C58    C     0.04679   0.56429   0.51090   0.00000  Uiso   1.00
C59    C     0.95321   0.43571   0.51090   0.00000  Uiso   1.00
C60    C     0.95321   0.56429   0.48910   0.00000  Uiso   1.00
C61    C     0.47348   0.47348   0.03051   0.00000  Uiso   1.00
C62    C     0.52652   0.52652   0.03051   0.00000  Uiso   1.00
C63    C     0.52652   0.47348   0.96949   0.00000  Uiso   1.00
C64    C     0.47348   0.52652   0.96949   0.00000  Uiso   1.00
C65    C     0.03051   0.47348   0.47348   0.00000  Uiso   1.00
C66    C     0.03051   0.52652   0.52652   0.00000  Uiso   1.00
C67    C     0.96949   0.52652   0.47348   0.00000  Uiso   1.00
C68    C     0.96949   0.47348   0.52652   0.00000  Uiso   1.00
C69    C     0.47348   0.03051   0.47348   0.00000  Uiso   1.00
C70    C     0.52652   0.03051   0.52652   0.00000  Uiso   1.00
C71    C     0.47348   0.96949   0.52652   0.00000  Uiso   1.00
C72    C     0.52652   0.96949   0.47348   0.00000  Uiso   1.00
H73    H     0.48124   0.42339   0.96469   0.00000  Uiso   1.00
H74    H     0.51876   0.57661   0.96469   0.00000  Uiso   1.00
H75    H     0.51876   0.42339   0.03531   0.00000  Uiso   1.00
H76    H     0.48124   0.57661   0.03531   0.00000  Uiso   1.00
H77    H     0.96469   0.48124   0.42339   0.00000  Uiso   1.00
H78    H     0.96469   0.51876   0.57661   0.00000  Uiso   1.00
H79    H     0.03531   0.51876   0.42339   0.00000  Uiso   1.00
H80    H     0.03531   0.48124   0.57661   0.00000  Uiso   1.00
H81    H     0.42339   0.96469   0.48124   0.00000  Uiso   1.00
H82    H     0.57661   0.96469   0.51876   0.00000  Uiso   1.00
H83    H     0.42339   0.03531   0.51876   0.00000  Uiso   1.00
H84    H     0.57661   0.03531   0.48124   0.00000  Uiso   1.00
H85    H     0.42339   0.48124   0.96469   0.00000  Uiso   1.00
H86    H     0.57661   0.51876   0.96469   0.00000  Uiso   1.00
H87    H     0.42339   0.51876   0.03531   0.00000  Uiso   1.00
H88    H     0.57661   0.48124   0.03531   0.00000  Uiso   1.00
H89    H     0.48124   0.96469   0.42339   0.00000  Uiso   1.00
H90    H     0.51876   0.96469   0.57661   0.00000  Uiso   1.00
H91    H     0.51876   0.03531   0.42339   0.00000  Uiso   1.00
H92    H     0.48124   0.03531   0.57661   0.00000  Uiso   1.00
H93    H     0.96469   0.42339   0.48124   0.00000  Uiso   1.00
H94    H     0.96469   0.57661   0.51876   0.00000  Uiso   1.00
H95    H     0.03531   0.42339   0.51876   0.00000  Uiso   1.00
H96    H     0.03531   0.57661   0.48124   0.00000  Uiso   1.00
H97    H     0.38497   0.48040   0.09011   0.00000  Uiso   1.00
H98    H     0.61504   0.51960   0.09011   0.00000  Uiso   1.00
H99    H     0.61504   0.48040   0.90989   0.00000  Uiso   1.00
H100   H     0.38497   0.51960   0.90989   0.00000  Uiso   1.00
H101   H     0.09011   0.38497   0.48040   0.00000  Uiso   1.00
H102   H     0.09011   0.61504   0.51960   0.00000  Uiso   1.00
H103   H     0.90989   0.61504   0.48040   0.00000  Uiso   1.00
H104   H     0.90989   0.38497   0.51960   0.00000  Uiso   1.00
H105   H     0.48040   0.09011   0.38497   0.00000  Uiso   1.00
H106   H     0.51960   0.09011   0.61504   0.00000  Uiso   1.00
H107   H     0.48040   0.90989   0.61504   0.00000  Uiso   1.00
H108   H     0.51960   0.90989   0.38497   0.00000  Uiso   1.00
H109   H     0.48040   0.38497   0.09011   0.00000  Uiso   1.00
H110   H     0.51960   0.61504   0.09011   0.00000  Uiso   1.00
H111   H     0.48040   0.61504   0.90989   0.00000  Uiso   1.00
H112   H     0.51960   0.38497   0.90989   0.00000  Uiso   1.00
H113   H     0.38497   0.09011   0.48040   0.00000  Uiso   1.00
H114   H     0.61504   0.09011   0.51960   0.00000  Uiso   1.00
H115   H     0.61504   0.90989   0.48040   0.00000  Uiso   1.00
H116   H     0.38497   0.90989   0.51960   0.00000  Uiso   1.00
H117   H     0.09011   0.48040   0.38497   0.00000  Uiso   1.00
H118   H     0.09011   0.51960   0.61504   0.00000  Uiso   1.00
H119   H     0.90989   0.48040   0.61504   0.00000  Uiso   1.00
H120   H     0.90989   0.51960   0.38497   0.00000  Uiso   1.00
C121   C     0.50000   0.50000   0.00000   0.00000  Uiso   1.00
C122   C     0.00000   0.50000   0.50000   0.00000  Uiso   1.00
C123   C     0.50000   0.00000   0.50000   0.00000  Uiso   1.00
C124   C     0.63914   0.60820   0.17947   0.00000  Uiso   1.00
C125   C     0.36086   0.39180   0.17947   0.00000  Uiso   1.00
C126   C     0.36086   0.60820   0.82053   0.00000  Uiso   1.00
C127   C     0.63914   0.39180   0.82053   0.00000  Uiso   1.00
C128   C     0.17947   0.63914   0.60820   0.00000  Uiso   1.00
C129   C     0.17947   0.36086   0.39180   0.00000  Uiso   1.00
C130   C     0.82053   0.36086   0.60820   0.00000  Uiso   1.00
C131   C     0.82053   0.63914   0.39180   0.00000  Uiso   1.00
C132   C     0.60820   0.17947   0.63914   0.00000  Uiso   1.00
C133   C     0.39180   0.17947   0.36086   0.00000  Uiso   1.00
C134   C     0.60820   0.82053   0.36086   0.00000  Uiso   1.00
C135   C     0.39180   0.82053   0.63914   0.00000  Uiso   1.00
C136   C     0.60820   0.63914   0.17947   0.00000  Uiso   1.00
C137   C     0.39180   0.36086   0.17947   0.00000  Uiso   1.00
C138   C     0.60820   0.36086   0.82053   0.00000  Uiso   1.00
C139   C     0.39180   0.63914   0.82053   0.00000  Uiso   1.00
C140   C     0.63914   0.17947   0.60820   0.00000  Uiso   1.00
C141   C     0.36086   0.17947   0.39180   0.00000  Uiso   1.00
C142   C     0.36086   0.82053   0.60820   0.00000  Uiso   1.00
C143   C     0.63914   0.82053   0.39180   0.00000  Uiso   1.00
C144   C     0.17947   0.60820   0.63914   0.00000  Uiso   1.00
C145   C     0.17947   0.39180   0.36086   0.00000  Uiso   1.00
C146   C     0.82053   0.60820   0.36086   0.00000  Uiso   1.00
C147   C     0.82053   0.39180   0.63914   0.00000  Uiso   1.00
C148   C     0.67176   0.60840   0.20789   0.00000  Uiso   1.00
C149   C     0.32825   0.39160   0.20789   0.00000  Uiso   1.00
C150   C     0.32825   0.60840   0.79211   0.00000  Uiso   1.00
C151   C     0.67176   0.39160   0.79211   0.00000  Uiso   1.00
C152   C     0.20789   0.67176   0.60840   0.00000  Uiso   1.00
C153   C     0.20789   0.32825   0.39160   0.00000  Uiso   1.00
C154   C     0.79211   0.32825   0.60840   0.00000  Uiso   1.00
C155   C     0.79211   0.67176   0.39160   0.00000  Uiso   1.00
C156   C     0.60840   0.20789   0.67176   0.00000  Uiso   1.00
C157   C     0.39160   0.20789   0.32825   0.00000  Uiso   1.00
C158   C     0.60840   0.79211   0.32825   0.00000  Uiso   1.00
C159   C     0.39160   0.79211   0.67176   0.00000  Uiso   1.00
C160   C     0.60840   0.67176   0.20789   0.00000  Uiso   1.00
C161   C     0.39160   0.32825   0.20789   0.00000  Uiso   1.00
C162   C     0.60840   0.32825   0.79211   0.00000  Uiso   1.00
C163   C     0.39160   0.67176   0.79211   0.00000  Uiso   1.00
C164   C     0.67176   0.20789   0.60840   0.00000  Uiso   1.00
C165   C     0.32825   0.20789   0.39160   0.00000  Uiso   1.00
C166   C     0.32825   0.79211   0.60840   0.00000  Uiso   1.00
C167   C     0.67176   0.79211   0.39160   0.00000  Uiso   1.00
C168   C     0.20789   0.60840   0.67176   0.00000  Uiso   1.00
C169   C     0.20789   0.39160   0.32825   0.00000  Uiso   1.00
C170   C     0.79211   0.60840   0.32825   0.00000  Uiso   1.00
C171   C     0.79211   0.39160   0.67176   0.00000  Uiso   1.00
C172   C     0.70505   0.64187   0.26789   0.00000  Uiso   1.00
C173   C     0.29496   0.35813   0.26789   0.00000  Uiso   1.00
C174   C     0.29496   0.64187   0.73211   0.00000  Uiso   1.00
C175   C     0.70505   0.35813   0.73211   0.00000  Uiso   1.00
C176   C     0.26789   0.70505   0.64187   0.00000  Uiso   1.00
C177   C     0.26789   0.29496   0.35813   0.00000  Uiso   1.00
C178   C     0.73211   0.29496   0.64187   0.00000  Uiso   1.00
C179   C     0.73211   0.70505   0.35813   0.00000  Uiso   1.00
C180   C     0.64187   0.26789   0.70505   0.00000  Uiso   1.00
C181   C     0.35813   0.26789   0.29496   0.00000  Uiso   1.00
C182   C     0.64187   0.73211   0.29496   0.00000  Uiso   1.00
C183   C     0.35813   0.73211   0.70505   0.00000  Uiso   1.00
C184   C     0.64187   0.70505   0.26789   0.00000  Uiso   1.00
C185   C     0.35813   0.29496   0.26789   0.00000  Uiso   1.00
C186   C     0.64187   0.29496   0.73211   0.00000  Uiso   1.00
C187   C     0.35813   0.70505   0.73211   0.00000  Uiso   1.00
C188   C     0.70505   0.26789   0.64187   0.00000  Uiso   1.00
C189   C     0.29496   0.26789   0.35813   0.00000  Uiso   1.00
C190   C     0.29496   0.73211   0.64187   0.00000  Uiso   1.00
C191   C     0.70505   0.73211   0.35813   0.00000  Uiso   1.00
C192   C     0.26789   0.64187   0.70505   0.00000  Uiso   1.00
C193   C     0.26789   0.35813   0.29496   0.00000  Uiso   1.00
C194   C     0.73211   0.64187   0.29496   0.00000  Uiso   1.00
C195   C     0.73211   0.35813   0.70505   0.00000  Uiso   1.00
C196   C     0.67293   0.64117   0.23752   0.00000  Uiso   1.00
C197   C     0.32707   0.35883   0.23752   0.00000  Uiso   1.00
C198   C     0.32707   0.64117   0.76248   0.00000  Uiso   1.00
C199   C     0.67293   0.35883   0.76248   0.00000  Uiso   1.00
C200   C     0.23752   0.67293   0.64117   0.00000  Uiso   1.00
C201   C     0.23752   0.32707   0.35883   0.00000  Uiso   1.00
C202   C     0.76248   0.32707   0.64117   0.00000  Uiso   1.00
C203   C     0.76248   0.67293   0.35883   0.00000  Uiso   1.00
C204   C     0.64117   0.23752   0.67293   0.00000  Uiso   1.00
C205   C     0.35883   0.23752   0.32707   0.00000  Uiso   1.00
C206   C     0.64117   0.76248   0.32707   0.00000  Uiso   1.00
C207   C     0.35883   0.76248   0.67293   0.00000  Uiso   1.00
C208   C     0.64117   0.67293   0.23752   0.00000  Uiso   1.00
C209   C     0.35883   0.32707   0.23752   0.00000  Uiso   1.00
C210   C     0.64117   0.32707   0.76248   0.00000  Uiso   1.00
C211   C     0.35883   0.67293   0.76248   0.00000  Uiso   1.00
C212   C     0.67293   0.23752   0.64117   0.00000  Uiso   1.00
C213   C     0.32707   0.23752   0.35883   0.00000  Uiso   1.00
C214   C     0.32707   0.76248   0.64117   0.00000  Uiso   1.00
C215   C     0.67293   0.76248   0.35883   0.00000  Uiso   1.00
C216   C     0.23752   0.64117   0.67293   0.00000  Uiso   1.00
C217   C     0.23752   0.35883   0.32707   0.00000  Uiso   1.00
C218   C     0.76248   0.64117   0.32707   0.00000  Uiso   1.00
C219   C     0.76248   0.35883   0.67293   0.00000  Uiso   1.00
H220   H     0.69564   0.58418   0.20797   0.00000  Uiso   1.00
H221   H     0.30436   0.41582   0.20797   0.00000  Uiso   1.00
H222   H     0.30436   0.58418   0.79203   0.00000  Uiso   1.00
H223   H     0.69564   0.41582   0.79203   0.00000  Uiso   1.00
H224   H     0.20797   0.69564   0.58418   0.00000  Uiso   1.00
H225   H     0.20797   0.30436   0.41582   0.00000  Uiso   1.00
H226   H     0.79203   0.30436   0.58418   0.00000  Uiso   1.00
H227   H     0.79203   0.69564   0.41582   0.00000  Uiso   1.00
H228   H     0.58418   0.20797   0.69564   0.00000  Uiso   1.00
H229   H     0.41582   0.20797   0.30436   0.00000  Uiso   1.00
H230   H     0.58418   0.79203   0.30436   0.00000  Uiso   1.00
H231   H     0.41582   0.79203   0.69564   0.00000  Uiso   1.00
H232   H     0.58418   0.69564   0.20797   0.00000  Uiso   1.00
H233   H     0.41582   0.30436   0.20797   0.00000  Uiso   1.00
H234   H     0.58418   0.30436   0.79203   0.00000  Uiso   1.00
H235   H     0.41582   0.69564   0.79203   0.00000  Uiso   1.00
H236   H     0.69564   0.20797   0.58418   0.00000  Uiso   1.00
H237   H     0.30436   0.20797   0.41582   0.00000  Uiso   1.00
H238   H     0.30436   0.79203   0.58418   0.00000  Uiso   1.00
H239   H     0.69564   0.79203   0.41582   0.00000  Uiso   1.00
H240   H     0.20797   0.58418   0.69564   0.00000  Uiso   1.00
H241   H     0.20797   0.41582   0.30436   0.00000  Uiso   1.00
H242   H     0.79203   0.58418   0.30436   0.00000  Uiso   1.00
H243   H     0.79203   0.41582   0.69564   0.00000  Uiso   1.00
O244   O     0.63076   0.57946   0.14837   0.00000  Uiso   1.00
O245   O     0.36924   0.42054   0.14837   0.00000  Uiso   1.00
O246   O     0.36924   0.57946   0.85163   0.00000  Uiso   1.00
O247   O     0.63076   0.42054   0.85163   0.00000  Uiso   1.00
O248   O     0.14837   0.63076   0.57946   0.00000  Uiso   1.00
O249   O     0.14837   0.36924   0.42054   0.00000  Uiso   1.00
O250   O     0.85163   0.36924   0.57946   0.00000  Uiso   1.00
O251   O     0.85163   0.63076   0.42054   0.00000  Uiso   1.00
O252   O     0.57946   0.14837   0.63076   0.00000  Uiso   1.00
O253   O     0.42054   0.14837   0.36924   0.00000  Uiso   1.00
O254   O     0.57946   0.85163   0.36924   0.00000  Uiso   1.00
O255   O     0.42054   0.85163   0.63076   0.00000  Uiso   1.00
O256   O     0.57946   0.63076   0.14837   0.00000  Uiso   1.00
O257   O     0.42054   0.36924   0.14837   0.00000  Uiso   1.00
O258   O     0.57946   0.36924   0.85163   0.00000  Uiso   1.00
O259   O     0.42054   0.63076   0.85163   0.00000  Uiso   1.00
O260   O     0.63076   0.14837   0.57946   0.00000  Uiso   1.00
O261   O     0.36924   0.14837   0.42054   0.00000  Uiso   1.00
O262   O     0.36924   0.85163   0.57946   0.00000  Uiso   1.00
O263   O     0.63076   0.85163   0.42054   0.00000  Uiso   1.00
O264   O     0.14837   0.57946   0.63076   0.00000  Uiso   1.00
O265   O     0.14837   0.42054   0.36924   0.00000  Uiso   1.00
O266   O     0.85163   0.57946   0.36924   0.00000  Uiso   1.00
O267   O     0.85163   0.42054   0.63076   0.00000  Uiso   1.00
B268   B     0.59352   0.59352   0.12950   0.00000  Uiso   1.00
B269   B     0.40648   0.40648   0.12950   0.00000  Uiso   1.00
B270   B     0.40648   0.59352   0.87050   0.00000  Uiso   1.00
B271   B     0.59352   0.40648   0.87050   0.00000  Uiso   1.00
B272   B     0.12950   0.59352   0.59352   0.00000  Uiso   1.00
B273   B     0.12950   0.40648   0.40648   0.00000  Uiso   1.00
B274   B     0.87050   0.40648   0.59352   0.00000  Uiso   1.00
B275   B     0.87050   0.59352   0.40648   0.00000  Uiso   1.00
B276   B     0.59352   0.12950   0.59352   0.00000  Uiso   1.00
B277   B     0.40648   0.12950   0.40648   0.00000  Uiso   1.00
B278   B     0.59352   0.87050   0.40648   0.00000  Uiso   1.00
B279   B     0.40648   0.87050   0.59352   0.00000  Uiso   1.00
loop_
_geom_bond_atom_site_label_1
_geom_bond_atom_site_label_2
_geom_bond_distance
_geom_bond_site_symmetry_2
_ccdc_geom_bond_type
C1     C13     1.408   .     S
C1     C25     1.408   .     D
C1     B269    1.539   .     S
C2     C14     1.408   .     S
C2     C26     1.408   .     D
C2     B268    1.539   .     S
C3     C15     1.408   .     S
C3     C28     1.408   .     D
C3     B271    1.539   .     S
C4     C16     1.408   .     S
C4     C27     1.408   .     D
C4     B270    1.539   .     S
C5     C17     1.408   .     S
C5     C33     1.408   .     D
C5     B273    1.539   .     S
C6     C18     1.408   .     S
C6     C34     1.408   .     D
C6     B272    1.539   .     S
C7     C19     1.408   .     S
C7     C36     1.408   .     D
C7     B275    1.539   .     S
C8     C20     1.408   .     S
C8     C35     1.408   .     D
C8     B274    1.539   .     S
C9     C21     1.408   .     D
C9     C29     1.408   .     S
C9     B277    1.539   .     S
C10    C22     1.408   .     D
C10    C30     1.408   .     S
C10    B276    1.539   .     S
C11    C23     1.408   .     D
C11    C32     1.408   .     S
C11    B279    1.539   .     S
C12    C24     1.408   .     D
C12    C31     1.408   .     S
C12    B278    1.539   .     S
C13    C37     1.392   .     D
C13    H109    1.091   .     S
C14    C38     1.392   .     D
C14    H110    1.091   .     S
C15    C39     1.392   .     D
C15    H112    1.091   .     S
C16    C40     1.392   .     D
C16    H111    1.091   .     S
C17    C41     1.392   .     D
C17    H117    1.091   .     S
C18    C42     1.392   .     D
C18    H118    1.091   .     S
C19    C43     1.392   .     D
C19    H120    1.091   .     S
C20    C44     1.392   .     D
C20    H119    1.091   .     S
C21    C45     1.392   .     S
C21    H113    1.091   .     S
C22    C46     1.392   .     S
C22    H114    1.091   .     S
C23    C47     1.392   .     S
C23    H116    1.091   .     S
C24    C48     1.392   .     S
C24    H115    1.091   .     S
C25    C49     1.392   .     S
C25    H97     1.091   .     S
C26    C50     1.392   .     S
C26    H98     1.091   .     S
C27    C51     1.392   .     S
C27    H100    1.091   .     S
C28    C52     1.392   .     S
C28    H99     1.091   .     S
C29    C53     1.392   .     D
C29    H105    1.091   .     S
C30    C54     1.392   .     D
C30    H106    1.091   .     S
C31    C55     1.392   .     D
C31    H108    1.091   .     S
C32    C56     1.392   .     D
C32    H107    1.091   .     S
C33    C57     1.392   .     S
C33    H101    1.091   .     S
C34    C58     1.392   .     S
C34    H102    1.091   .     S
C35    C59     1.392   .     S
C35    H104    1.091   .     S
C36    C60     1.392   .     S
C36    H103    1.091   .     S
C37    C61     1.406   .     S
C37    H75     1.090   .     S
C38    C62     1.406   .     S
C38    H76     1.090   .     S
C39    C63     1.406   .     S
C39    H73     1.090   .     S
C40    C64     1.406   .     S
C40    H74     1.090   .     S
C41    C65     1.406   .     S
C41    H79     1.090   .     S
C42    C66     1.406   .     S
C42    H80     1.090   .     S
C43    C67     1.406   .     S
C43    H77     1.090   .     S
C44    C68     1.406   .     S
C44    H78     1.090   .     S
C45    C69     1.406   .     D
C45    H83     1.090   .     S
C46    C70     1.406   .     D
C46    H84     1.090   .     S
C47    C71     1.406   .     D
C47    H81     1.090   .     S
C48    C72     1.406   .     D
C48    H82     1.090   .     S
C49    C61     1.406   .     D
C49    H87     1.090   .     S
C50    C62     1.406   .     D
C50    H88     1.090   .     S
C51    C64     1.406   .     D
C51    H85     1.090   .     S
C52    C63     1.406   .     D
C52    H86     1.090   .     S
C53    C69     1.406   .     S
C53    H91     1.090   .     S
C54    C70     1.406   .     S
C54    H92     1.090   .     S
C55    C72     1.406   .     S
C55    H89     1.090   .     S
C56    C71     1.406   .     S
C56    H90     1.090   .     S
C57    C65     1.406   .     D
C57    H95     1.090   .     S
C58    C66     1.406   .     D
C58    H96     1.090   .     S
C59    C68     1.406   .     D
C59    H93     1.090   .     S
C60    C67     1.406   .     D
C60    H94     1.090   .     S
C61    C121    1.545   .     S
C62    C121    1.545   .     S
C63    C121    1.545   1_556 S
C64    C121    1.545   1_556 S
C65    C122    1.545   .     S
C66    C122    1.545   .     S
C67    C122    1.545   1_655 S
C68    C122    1.545   1_655 S
C69    C123    1.545   .     S
C70    C123    1.545   .     S
C71    C123    1.545   1_565 S
C72    C123    1.545   1_565 S
C121   C64     1.545   1_554 S
C121   C63     1.545   1_554 S
C122   C68     1.545   1_455 S
C122   C67     1.545   1_455 S
C123   C71     1.545   1_545 S
C123   C72     1.545   1_545 S
C124   C136    1.398   .     D
C124   C148    1.382   .     S
C124   O244    1.380   .     S
C125   C137    1.398   .     D
C125   C149    1.382   .     S
C125   O245    1.380   .     S
C126   C139    1.398   .     D
C126   C150    1.382   .     S
C126   O246    1.380   .     S
C127   C138    1.398   .     D
C127   C151    1.382   .     S
C127   O247    1.380   .     S
C128   C144    1.398   .     D
C128   C152    1.382   .     S
C128   O248    1.380   .     S
C129   C145    1.398   .     D
C129   C153    1.382   .     S
C129   O249    1.380   .     S
C130   C147    1.398   .     D
C130   C154    1.382   .     S
C130   O250    1.380   .     S
C131   C146    1.398   .     D
C131   C155    1.382   .     S
C131   O251    1.380   .     S
C132   C140    1.398   .     D
C132   C156    1.382   .     S
C132   O252    1.380   .     S
C133   C141    1.398   .     S
C133   C157    1.382   .     D
C133   O253    1.380   .     S
C134   C143    1.398   .     S
C134   C158    1.382   .     D
C134   O254    1.380   .     S
C135   C142    1.398   .     D
C135   C159    1.382   .     S
C135   O255    1.380   .     S
C136   C160    1.382   .     S
C136   O256    1.380   .     S
C137   C161    1.382   .     S
C137   O257    1.380   .     S
C138   C162    1.382   .     S
C138   O258    1.380   .     S
C139   C163    1.382   .     S
C139   O259    1.380   .     S
C140   C164    1.382   .     S
C140   O260    1.380   .     S
C141   C165    1.382   .     D
C141   O261    1.380   .     S
C142   C166    1.382   .     S
C142   O262    1.380   .     S
C143   C167    1.382   .     D
C143   O263    1.380   .     S
C144   C168    1.382   .     S
C144   O264    1.380   .     S
C145   C169    1.382   .     S
C145   O265    1.380   .     S
C146   C170    1.382   .     S
C146   O266    1.380   .     S
C147   C171    1.382   .     S
C147   O267    1.380   .     S
C148   C196    1.412   .     D
C148   H220    1.087   .     S
C149   C197    1.412   .     D
C149   H221    1.087   .     S
C150   C198    1.412   .     D
C150   H222    1.087   .     S
C151   C199    1.412   .     D
C151   H223    1.087   .     S
C152   C200    1.412   .     D
C152   H224    1.087   .     S
C153   C201    1.412   .     D
C153   H225    1.087   .     S
C154   C202    1.412   .     D
C154   H226    1.087   .     S
C155   C203    1.412   .     D
C155   H227    1.087   .     S
C156   C204    1.412   .     D
C156   H228    1.087   .     S
C157   C205    1.412   .     S
C157   H229    1.087   .     S
C158   C206    1.412   .     S
C158   H230    1.087   .     S
C159   C207    1.412   .     D
C159   H231    1.087   .     S
C160   C208    1.412   .     D
C160   H232    1.087   .     S
C161   C209    1.412   .     D
C161   H233    1.087   .     S
C162   C210    1.412   .     D
C162   H234    1.087   .     S
C163   C211    1.412   .     D
C163   H235    1.087   .     S
C164   C212    1.412   .     D
C164   H236    1.087   .     S
C165   C213    1.412   .     S
C165   H237    1.087   .     S
C166   C214    1.412   .     D
C166   H238    1.087   .     S
C167   C215    1.412   .     S
C167   H239    1.087   .     S
C168   C216    1.412   .     D
C168   H240    1.087   .     S
C169   C217    1.412   .     D
C169   H241    1.087   .     S
C170   C218    1.412   .     D
C170   H242    1.087   .     S
C171   C219    1.412   .     D
C171   H243    1.087   .     S
C172   C194    1.223   .     T
C172   C196    1.413   .     S
C173   C193    1.223   .     T
C173   C197    1.413   .     S
C174   C192    1.223   .     T
C174   C198    1.413   .     S
C175   C195    1.223   .     T
C175   C199    1.413   .     S
C176   C190    1.223   .     T
C176   C200    1.413   .     S
C177   C189    1.223   .     T
C177   C201    1.413   .     S
C178   C188    1.223   .     T
C178   C202    1.413   .     S
C179   C191    1.223   .     T
C179   C203    1.413   .     S
C180   C186    1.223   .     T
C180   C204    1.413   .     S
C181   C185    1.223   .     T
C181   C205    1.413   .     S
C182   C184    1.223   .     T
C182   C206    1.413   .     S
C183   C187    1.223   .     T
C183   C207    1.413   .     S
C184   C208    1.413   .     S
C185   C209    1.413   .     S
C186   C210    1.413   .     S
C187   C211    1.413   .     S
C188   C212    1.413   .     S
C189   C213    1.413   .     S
C190   C214    1.413   .     S
C191   C215    1.413   .     S
C192   C216    1.413   .     S
C193   C217    1.413   .     S
C194   C218    1.413   .     S
C195   C219    1.413   .     S
C196   C208    1.435   .     S
C197   C209    1.435   .     S
C198   C211    1.435   .     S
C199   C210    1.435   .     S
C200   C216    1.435   .     S
C201   C217    1.435   .     S
C202   C219    1.435   .     S
C203   C218    1.435   .     S
C204   C212    1.435   .     S
C205   C213    1.435   .     D
C206   C215    1.435   .     D
C207   C214    1.435   .     S
O244   B268    1.408   .     S
O245   B269    1.408   .     S
O246   B270    1.408   .     S
O247   B271    1.408   .     S
O248   B272    1.408   .     S
O249   B273    1.408   .     S
O250   B274    1.408   .     S
O251   B275    1.408   .     S
O252   B276    1.408   .     S
O253   B277    1.408   .     S
O254   B278    1.408   .     S
O255   B279    1.408   .     S
O256   B268    1.408   .     S
O257   B269    1.408   .     S
O258   B271    1.408   .     S
O259   B270    1.408   .     S
O260   B276    1.408   .     S
O261   B277    1.408   .     S
O262   B279    1.408   .     S
O263   B278    1.408   .     S
O264   B272    1.408   .     S
O265   B273    1.408   .     S
O266   B275    1.408   .     S
O267   B274    1.408   .     S
